Circuit: * C:\users\icute\pwm_rc_series.asc

Direct Newton iteration failed to find .op point.  (Use ".option noopiter" to skip.)
Starting Gmin stepping
Gmin = 10
Gmin = 1.07374
vernier = 0.5
vernier = 0.25
vernier = 0.125
vernier = 0.0625
Gmin = 1.04056
vernier = 0.03125
vernier = 0.015625
vernier = 0.0078125
Gmin = 1.01851
vernier = 0.00390625
vernier = 0.00520833
Gmin = 1.00829
vernier = 0.00260417
vernier = 0.00130208
Gmin = 1.00665
vernier = 0.00173611
vernier = 0.000868055
vernier = 0.00115741
vernier = 0.000578703
Gmin = 1.00527
vernier = 0.000771604
vernier = 0.000578703
Gmin = 1.00406
vernier = 0.000434027
vernier = 0.000578703
Gmin = 1.00308
vernier = 0.000434027
Gmin = 0
Gmin stepping failed

Starting source stepping with srcstepmethod=0
Source Step = 3.0303%
Source Step = 33.3333%
Source Step = 63.6364%
Source Step = 93.9394%
Source Step = 97.7362%
Source Step = 97.7657%
Source Step = 97.7953%
Source Step = 97.8249%
Source Step = 97.8545%
vernier = 0.00146484
Source Step = 97.8856%
Source Step = 97.93%
Source Step = 97.9744%
Source Step = 98.0188%
Source Step = 98.0632%
Source Step = 98.1075%
vernier = 0.00219727
Source Step = 98.1741%
Source Step = 98.2407%
Source Step = 98.3073%
Source Step = 98.3739%
Source Step = 98.4405%
vernier = 0.0032959
Source Step = 98.537%
Source Step = 98.6369%
Source Step = 98.7368%
Source Step = 98.8366%
Source Step = 98.9365%
vernier = 0.00494385
Source Step = 99.0763%
Source Step = 99.2261%
Source Step = 99.376%
Source Step = 99.5258%
Source Step = 99.6756%
vernier = 0.00741577
Source Step = 99.8778%
Source Step = 99.979%
Source Step = 100%
Source Step = 100%
Source Step = 100%
Source Step = 100%
Source Step = 100%
Source Step = 100%
Source Step = 100%
Source Step = 100%
Source Step = 100%
Source Step = 100%
Source stepping succeeded in finding the operating point.

Changing Tseed to 1e-011
Changing Tseed to 1e-013
Changing Tseed to 1e-010
Heightened Def Con from 0.000639281 to 0.000639284
Heightened Def Con from 0.00124206 to 0.00124206
Heightened Def Con from 0.00129603 to 0.00129603
Heightened Def Con from 0.00162003 to 0.00162003
Heightened Def Con from 0.00180908 to 0.00180909
Heightened Def Con from 0.0018091 to 0.0018091
Heightened Def Con from 0.00191707 to 0.00191707
Heightened Def Con from 0.00191707 to 0.00191707
Heightened Def Con from 0.00191708 to 0.00191708
Heightened Def Con from 0.00194408 to 0.00194408
Heightened Def Con from 0.00205211 to 0.00205212
Heightened Def Con from 0.00210613 to 0.00210613
Heightened Def Con from 0.00234861 to 0.00234861
Heightened Def Con from 0.00240332 to 0.00240332
Heightened Def Con from 0.00240335 to 0.00240335
Heightened Def Con from 0.00307781 to 0.00307781
Heightened Def Con from 0.00340218 to 0.00340219
Heightened Def Con from 0.00359114 to 0.00359114
Heightened Def Con from 0.00361804 to 0.00361804
Heightened Def Con from 0.00388809 to 0.00388809
Heightened Def Con from 0.00391509 to 0.00391509
Heightened Def Con from 0.00415412 to 0.00415412
Heightened Def Con from 0.00694299 to 0.006943
Heightened Def Con from 0.012447 to 0.012447
Heightened Def Con from 0.0125821 to 0.0125821
Heightened Def Con from 0.012879 to 0.012879
Heightened Def Con from 0.0130411 to 0.0130411
Heightened Def Con from 0.0130411 to 0.0130411
Heightened Def Con from 0.0131478 to 0.0131478
Heightened Def Con from 0.0131761 to 0.0131761
Heightened Def Con from 0.0132291 to 0.0132291
Heightened Def Con from 0.0132301 to 0.0132301
Heightened Def Con from 0.0132301 to 0.0132301
Heightened Def Con from 0.0132571 to 0.0132571
Heightened Def Con from 0.0134185 to 0.0134185
Heightened Def Con from 0.013419 to 0.013419
Heightened Def Con from 0.013446 to 0.013446
Heightened Def Con from 0.013446 to 0.013446
Heightened Def Con from 0.0141479 to 0.0141479
Heightened Def Con from 0.014148 to 0.014148
Heightened Def Con from 0.014175 to 0.014175
Heightened Def Con from 0.014202 to 0.014202
Heightened Def Con from 0.0146597 to 0.0146597
Heightened Def Con from 0.014877 to 0.014877
Heightened Def Con from 0.015201 to 0.015201
Heightened Def Con from 0.015417 to 0.015417
Heightened Def Con from 0.023139 to 0.023139
Heightened Def Con from 0.023274 to 0.023274
Heightened Def Con from 0.02376 to 0.02376
Heightened Def Con from 0.0239491 to 0.0239491
Heightened Def Con from 0.024246 to 0.024246
Heightened Def Con from 0.0244343 to 0.0244343
Heightened Def Con from 0.025326 to 0.025326
Heightened Def Con from 0.026244 to 0.026244
Heightened Def Con from 0.026325 to 0.026325
Heightened Def Con from 0.026784 to 0.026784
Heightened Def Con from 0.026865 to 0.026865
Heightened Def Con from 0.026865 to 0.026865
Heightened Def Con from 0.027378 to 0.027378
Heightened Def Con from 0.0296747 to 0.0296747
Heightened Def Con from 0.0297016 to 0.0297016
Heightened Def Con from 0.034209 to 0.034209
Heightened Def Con from 0.034209 to 0.034209
Heightened Def Con from 0.034209 to 0.034209
Heightened Def Con from 0.0345331 to 0.0345331
Heightened Def Con from 0.034668 to 0.034668
Heightened Def Con from 0.034668 to 0.034668
Heightened Def Con from 0.0347221 to 0.0347221
Heightened Def Con from 0.035019 to 0.035019
Heightened Def Con from 0.0350461 to 0.0350461
Heightened Def Con from 0.0351271 to 0.0351271
Heightened Def Con from 0.0352351 to 0.0352351
Heightened Def Con from 0.0352351 to 0.0352351
Heightened Def Con from 0.0352891 to 0.0352891
Heightened Def Con from 0.0354501 to 0.0354501
Heightened Def Con from 0.0355042 to 0.0355042
Heightened Def Con from 0.035532 to 0.035532
Heightened Def Con from 0.035613 to 0.035613
Heightened Def Con from 0.035613 to 0.035613
Heightened Def Con from 0.035694 to 0.035694
Heightened Def Con from 0.0357207 to 0.0357207
Heightened Def Con from 0.035775 to 0.035775
Heightened Def Con from 0.035802 to 0.035802
Heightened Def Con from 0.0366923 to 0.0366923
Heightened Def Con from 0.037611 to 0.037611
Heightened Def Con from 0.037989 to 0.037989
Heightened Def Con from 0.0407986 to 0.0407986
Heightened Def Con from 0.045522 to 0.045522
Heightened Def Con from 0.0459541 to 0.0459541
Heightened Def Con from 0.046386 to 0.046386
Heightened Def Con from 0.046494 to 0.046494
Heightened Def Con from 0.0465481 to 0.0465481
Heightened Def Con from 0.0465751 +++++to 0.0465751
Heightened Def Con from 0.0465751 ++++++to 0.0465751
Heightened Def Con from 0.0465751 to 0.0465751
Heightened Def Con from 0.0465751 +to 0.0465751
Heightened Def Con from 0.0465751 +to 0.0465751
Heightened Def Con from 0.0465751 +to 0.0465751
Heightened Def Con from 0.0465751 ++to 0.0465751
Heightened Def Con from 0.0465751 to 0.0465751
Heightened Def Con from 0.0465751 to 0.0465751
Heightened Def Con from 0.0465751 to 0.0465751
Heightened Def Con from 0.0465751 to 0.0465751
Heightened Def Con from 0.0465751 to 0.0465751
Heightened Def Con from 0.0465751 ++to 0.0465751
Heightened Def Con from 0.0465751 to 0.0465751
Heightened Def Con from 0.0465751 to 0.0465751
Heightened Def Con from 0.0465751 ++to 0.0465751
Heightened Def Con from 0.0465751 +to 0.0465751
Heightened Def Con from 0.0465751 to 0.0465751
Heightened Def Con from 0.0465751 to 0.0465751
Heightened Def Con from 0.0465751 ++to 0.0465751
Heightened Def Con from 0.0465751 ++++to 0.0465751
Heightened Def Con from 0.0465751 +++to 0.0465751
Heightened Def Con from 0.0465751 ++to 0.0465751
Heightened Def Con from 0.0465751 +to 0.0465751
Heightened Def Con from 0.0465751 to 0.0465751
Heightened Def Con from 0.0465751 to 0.0465751
Heightened Def Con from 0.0465751 to 0.0465751
Heightened Def Con from 0.0465751 ++++to 0.0465751
Heightened Def Con from 0.0465751 ++++to 0.0465751
Heightened Def Con from 0.0465751 to 0.0465751
Heightened Def Con from 0.0465751 to 0.0465751
Heightened Def Con from 0.0465751 to 0.0465751
Heightened Def Con from 0.0465751 +to 0.0465751
Heightened Def Con from 0.0465751 +to 0.0465751
Heightened Def Con from 0.0465751 to 0.0465751
Heightened Def Con from 0.0465751 to 0.0465751
Heightened Def Con from 0.0465751 to 0.0465751
Heightened Def Con from 0.0465751 +to 0.0465751
Heightened Def Con from 0.0465751 to 0.0465751
Heightened Def Con from 0.0465751 +to 0.0465751
Heightened Def Con from 0.0465751 +to 0.0465751
Heightened Def Con from 0.0465751 to 0.0465751
Heightened Def Con from 0.0465751 to 0.0465751
Heightened Def Con from 0.0465751 +to 0.0465751
Heightened Def Con from 0.0465751 +++to 0.0465751
Heightened Def Con from 0.0465751 +to 0.0465751
Heightened Def Con from 0.0465751 +++++++++to 0.0465751
Heightened Def Con from 0.0465751 to 0.0465751
Heightened Def Con from 0.0465751 to 0.0465751
Heightened Def Con from 0.0465751 +to 0.0465751
Heightened Def Con from 0.0465751 to 0.0465751
Heightened Def Con from 0.0465751 +++to 0.0465751
Heightened Def Con from 0.0465751 +to 0.0465751
Heightened Def Con from 0.0465751 +++++to 0.0465751
Heightened Def Con from 0.0465751 to 0.0465751
Heightened Def Con from 0.0465751 +to 0.0465751
Heightened Def Con from 0.0465751 to 0.0465751
Heightened Def Con from 0.0465751 +to 0.0465751
Heightened Def Con from 0.0465751 to 0.0465751
Heightened Def Con from 0.0465751 ++++to 0.0465751
Heightened Def Con from 0.0465751 to 0.0465751
Heightened Def Con from 0.0465751 to 0.0465751
Heightened Def Con from 0.0465751 +++++to 0.0465751
Heightened Def Con from 0.0465751 ++++++to 0.0465751
Heightened Def Con from 0.0465751 +to 0.0465751
Heightened Def Con from 0.0465751 +++to 0.0465751
Heightened Def Con from 0.0465751 +++++++++++++++++++++++++to 0.0465751
Heightened Def Con from 0.0465751 +++++++++++++++++++to 0.0465751
Heightened Def Con from 0.0465751 to 0.0465751
Heightened Def Con from 0.048087 to 0.048087
Heightened Def Con from 0.0480871 to 0.0480871
Heightened Def Con from 0.0482761 to 0.0482761
Heightened Def Con from 0.04833 to 0.04833
Heightened Def Con from 0.056835 to 0.056835
Heightened Def Con from 0.056889 to 0.056889
Heightened Def Con from 0.0569161 to 0.0569161
Heightened Def Con from 0.057348 to 0.057348
Heightened Def Con from 0.0573481 to 0.0573481
Heightened Def Con from 0.0574291 to 0.0574291
Heightened Def Con from 0.0574831 to 0.0574831
Heightened Def Con from 0.0574831 to 0.0574831
Heightened Def Con from 0.0574831 to 0.0574831
Heightened Def Con from 0.0574831 to 0.0574831
Heightened Def Con from 0.0575911 to 0.0575911
Heightened Def Con from 0.0576721 to 0.0576721
Heightened Def Con from 0.0576721 to 0.0576721
Heightened Def Con from 0.0577261 to 0.0577261
Heightened Def Con from 0.0577261 to 0.0577261
Heightened Def Con from 0.0578064 to 0.0578064
Heightened Def Con from 0.0588594 to 0.0588594
Heightened Def Con from 0.05886 to 0.05886
Heightened Def Con from 0.0588604 to 0.0588604
Heightened Def Con from 0.0588604 to 0.0588604
Heightened Def Con from 0.0595081 to 0.0595081
Heightened Def Con from 0.0595081 to 0.0595081
Heightened Def Con from 0.0595351 to 0.0595351
Heightened Def Con from 0.059562 to 0.059562
Heightened Def Con from 0.059886 to 0.059886
Heightened Def Con from 0.059886 to 0.059886
Heightened Def Con from 0.0679591 to 0.0679591
Heightened Def Con from 0.0684451 to 0.0684451
Heightened Def Con from 0.0684451 to 0.0684451
Heightened Def Con from 0.068688 to 0.068688
Heightened Def Con from 0.068715 to 0.068715
Heightened Def Con from 0.068769 to 0.068769
Heightened Def Con from 0.0687961 to 0.0687961
Heightened Def Con from 0.0688231 to 0.0688231
Heightened Def Con from 0.06885 to 0.06885
Heightened Def Con from 0.0689304 to 0.0689304
Heightened Def Con from 0.0690657 to 0.0690657
Heightened Def Con from 0.0690657 to 0.0690657
Heightened Def Con from 0.0696599 to 0.0696599
Heightened Def Con from 0.069687 to 0.069687
Heightened Def Con from 0.0700642 to 0.0700642
Heightened Def Con from 0.070065 to 0.070065
Heightened Def Con from 0.0702526 to 0.0702526
Heightened Def Con from 0.0702526 to 0.0702526
Heightened Def Con from 0.0705781 to 0.0705781
Heightened Def Con from 0.0706321 to 0.0706321
Heightened Def Con from 0.07074 to 0.07074
Heightened Def Con from 0.0707903 to 0.0707903
Heightened Def Con from 0.070848 to 0.070848
Heightened Def Con from 0.070929 to 0.070929
Heightened Def Con from 0.071064 to 0.071064

Date: Thu Apr 06 03:10:28 2023
Total elapsed time: 14.407 seconds.

tnom = 27
temp = 27
method = modified trap
totiter = 2073529
traniter = 2059460
tranpoints = 983581
accept = 908506
rejected = 75423
matrix size = 93
fillins = 115
solver = Normal
Matrix Compiler1: 12.75 KB object code size  1.1/0.7/[0.4]
Matrix Compiler2: 9.96 KB object code size  0.6/0.6/[0.3]

